 Abaqus/Standard Student Edition 6.14-2                  DATE 06-Sep-2022 TIME 19:42:44
 SUMMARY OF JOB INFORMATION:
 STEP  INC ATT SEVERE EQUIL TOTAL  TOTAL      STEP       INC OF       DOF    IF
               DISCON ITERS ITERS  TIME/    TIME/LPF    TIME/LPF    MONITOR RIKS
               ITERS               FREQ
   1     1   1     0     1     1  1.00       1.00       1.000     
                          
 THE ANALYSIS HAS COMPLETED SUCCESSFULLY
